<?xml version="1.0" encoding="UTF-8"?>

<!-- generated on 2025-02-02 14:34:20.605588 by randomTrips.py v1_21_0+0000-d7b3b481c43
<configuration>
    <net-file value="E:\TransPy\OSM_dp\myMap\map.net.xml"/>
    <route-file value="E:\TransPy\OSM_dp\myMap\map.rou.xml"/>
    <length value="True"/>
    <end value="500.0"/>
</configuration>
-->

<!-- generated on 2025-02-02 14:34:20 by Eclipse SUMO duarouter Version 1.21.0
<duarouterConfiguration xmlns:xsi="http://www.w3.org/2001/XMLSchema-instance" xsi:noNamespaceSchemaLocation="http://sumo.dlr.de/xsd/duarouterConfiguration.xsd">

    <input>
        <net-file value="E:\TransPy\OSM_dp\myMap\map.net.xml"/>
        <route-files value="trips.trips.xml"/>
    </input>

    <output>
        <output-file value="E:\TransPy\OSM_dp\myMap\map.rou.xml"/>
        <alternatives-output value="NUL"/>
    </output>

    <time>
        <begin value="0"/>
        <end value="500.0"/>
    </time>

    <report>
        <no-warnings value="true"/>
        <ignore-errors value="true"/>
        <no-step-log value="true"/>
    </report>

</duarouterConfiguration>
-->

<routes xmlns:xsi="http://www.w3.org/2001/XMLSchema-instance" xsi:noNamespaceSchemaLocation="http://sumo.dlr.de/xsd/routes_file.xsd">
    <vehicle id="0" depart="0.00">
        <route edges="11742522 -11823485#1 -11823485#0 -318681921#1 -318681921#0 -1345264769#1 -1345264769#0 -335532205#1 -335532205#0 -318681923 -1345265348 -1345264770 -1345264771 -1345264765 -54964356#2 -54964356#1 -54964356#0 -335532206#1 -335532206#0 -1345264766 -1345264773 -1345264774 -1345264772#2 -1345264772#1 -1345264772#0 -11729090 -335532207#3 -335532207#2 -335532207#1 -335532207#0 -1322596741#7 -1322596741#6 -1322596741#5 -1322596741#4 -1322596741#3 -1322596741#2 -1322596741#1 -1322596741#0 -11837579#1 -11837579#0 -1057194119#20 -1057194119#19 -1057194119#18 -1057194119#17 -1057194119#16 -1057194119#15 -1057194119#14 -1057194119#13 -1057194119#12 -1057194119#11 -1057194119#10 -1057194119#9 -1057194119#8 -1057194119#7 -1057194119#6 -1057194119#5 -1057194119#4 -1057194119#3 -1057194119#2 -1022429033#2 -1022429033#1"/>
    </vehicle>
    <vehicle id="1" depart="1.00">
        <route edges="-11853299#9 -11853299#8 -11853299#7 -11853299#6 -11853299#5 -11853299#4 -11853299#3 1022429033#0 1022429033#1 1022429033#2 1057194119#2 1057194119#3 1057194119#4 1057194119#5 1057194119#6 1057194119#7 1057194119#8 1057194119#9 1057194119#10 1057194119#11 1057194119#12 1057194119#13 1057194119#14 1057194119#15 1057194119#16 1057194119#17 1057194119#18 1057194119#19 1057194119#20 11837579#0 11837579#1 1322596741#0 1322596741#1 1322596741#2 1322596741#3 1322596741#4 1322596741#5 1322596741#6 1322596741#7 335532207#0 335532207#1 335532207#2 335532207#3 11729090 1345264772#0 1345264772#1 1345264772#2 1345264774 1345264773 1345264766 335532206#0 335532206#1 1022073976#0 1022073976#1 1345264764 1345264768 1345264767 11690395#0 11690395#1 11690395#2 -245035998#1 -245035998#0"/>
    </vehicle>
    <vehicle id="2" depart="2.00">
        <route edges="11949370#1 11949370#2 1057194119#15 1057194119#16 1057194119#17 1057194119#18 1057194119#19 1057194119#20 11837579#0 11837579#1 1322596741#0 1322596741#1 1322596741#2 1322596741#3 1322596741#4 1322596741#5 1322596741#6 1322596741#7 335532207#0 335532207#1 335532207#2 335532207#3 11729090 1345264772#0 1345264772#1 1345264772#2 1345264774 1345264773 1345264766 335532206#0 335532206#1 54964356#0 54964356#1 54964356#2 1345264765 1345264771 1345264770 1345265348 318681923 -11851716#7 -11851716#6 -11851716#5 -11851716#4 -11851716#3 -11851716#2 -11851716#1 -11851716#0 -264432818#2 -264432818#1 -264432818#0 -11698857 -294921196#1 -294921196#0 1317034674 1022073987 1022073986#0 1022073986#1 1022073986#2 11834303#0"/>
    </vehicle>
    <vehicle id="3" depart="3.00">
        <route edges="296429762#4 296429762#5 296429762#6 1022073978#0 1022073978#1 11838419#0 11838419#1 27630556#0 27630556#1 27630527#0 27630527#1 27630527#2 -24931882#3 11734061 -714792792#1 -714792792#0 294921196#0 294921196#1 11698857 264432818#0 264432818#1 264432818#2 11851716#0 11851716#1 11851716#2 11851716#3 11851716#4 11851716#5 11851716#6 11851716#7 -318681923 -1345265348 -1345264770 -1345264771 -1345264765 -54964356#2 -54964356#1 -54964356#0 -335532206#1 -335532206#0 -1345264766 -1345264773 -1345264774 -1345264772#2 -1345264772#1 -1345264772#0 -11729090"/>
    </vehicle>
    <vehicle id="4" depart="4.00">
        <route edges="-315436625#2 -315436625#1 -315436625#0 -11755338#1 -11755338#0 -392332379#1 -392332379#0 -1022429027 -11805275#5 -11805275#4 -11805275#3 -11805275#2 -11805275#1 -11805275#0 11955884#0 11955884#1 11955884#2 11955884#3 11955884#4 1022429029#0 1022429029#1 1022429029#2 1023470061#0 1023470061#1 1023470061#2 1022429032#0 1022429032#1 1022429032#2 1022429033#0 1022429033#1 1022429033#2 1022429033#3 1022429033#4 -1022429033#4"/>
    </vehicle>
    <vehicle id="5" depart="5.00">
        <route edges="-11823485#1 -11823485#0 -318681921#1 -318681921#0 -1345264769#1 -1345264769#0 -335532205#1 -335532205#0 -318681923 -1345265348 -1345264770 -1345264771 -1345264765 -54964356#2 -54964356#1 -54964356#0 -335532206#1 -335532206#0 -1345264766 -1345264773 -1345264774 -1345264772#2 -1345264772#1 -267171461#1 -267171461#0 -11944354#1 -11944354#0 11833234 267173080#0 11691398#0 11691398#1"/>
    </vehicle>
    <vehicle id="7" depart="7.00">
        <route edges="11756576#0 11756576#1 11756576#2 11742581#0 11742581#1 -1345264767 -1345264768 -1345264764 -1022073976#1 -1022073976#0 54964356#0 54964356#1 54964356#2 1345264765 1345264771 1345264770 1345265348 318681923 335532205#0 335532205#1 1345264769#0 1345264769#1 318681921#0 318681921#1 318681921#2 318681921#3 11711688#0 11711688#1"/>
    </vehicle>
    <vehicle id="8" depart="8.00">
        <route edges="-11823485#2 -11823485#1 -11823485#0 -318681921#1 -318681921#0 -1345264769#1 -1345264769#0 -335532205#1 -335532205#0 -318681923 -1345265348 -1345264770 11736605#0 11736605#1"/>
    </vehicle>
    <vehicle id="9" depart="9.00">
        <route edges="24931882#1 24931882#2 11734061 -714792792#1 -714792792#0 1317034674 1022073987 1022073986#0 1022073986#1 1022073986#2 11834303#0 11834303#1 11803878 -11803878 -11834303#1 -11834303#0 -1022073986#2 -1022073986#1 -1022073986#0"/>
    </vehicle>
    <vehicle id="10" depart="10.00">
        <route edges="24931539 27630556#0 27630556#1 27630527#0 27630527#1 27630527#2 -24931882#3 11734061 -714792792#1 -714792792#0 294921196#0 294921196#1 11698857 264432818#0 264432818#1 264432818#2 11851716#0 11851716#1 11851716#2 11851716#3 11851716#4 11851716#5"/>
    </vehicle>
    <vehicle id="11" depart="11.00">
        <route edges="-264432818#1 -264432818#0 -11698857 -294921196#1 -294921196#0 1317034674 1022073987 1022073986#0 1022073986#1 1022073986#2 11834303#0 11834303#1 11803878 -11803878 -11834303#1 -11834303#0"/>
    </vehicle>
    <vehicle id="12" depart="12.00">
        <route edges="366700511#2 1022073983 313329257#0 313329257#1 313329257#2 1022073984 -318681921#4 -318681921#3 -318681921#2 -318681921#1 -318681921#0"/>
    </vehicle>
    <vehicle id="13" depart="13.00">
        <route edges="-11699690#2 -11699690#1 -11699690#0 11742522 -11823485#1 -11823485#0 -318681921#1 -318681921#0 -1345264769#1 -1345264769#0 -335532205#1 -335532205#0 -11851716#7 -11851716#6 -11851716#5 -11851716#4 -11851716#3 -11851716#2 -11851716#1 -11851716#0 -264432818#2 -264432818#1 -264432818#0 296429762#0 296429762#1 296429762#2 296429762#3 296429762#4 296429762#5 296429762#6 1022073978#0 1022073978#1 11838419#0 11838419#1 -374792903 -293149233 -24931540 -11734052#3 -11734052#2"/>
    </vehicle>
    <vehicle id="14" depart="14.00">
        <route edges="28727096#0 28727096#1 28727096#2 28727096#3 28727096#4 28727096#5 28727096#6 28727096#7 28727096#8 625851681#0 625851681#1 625851681#2 625851681#3 625851681#4 625361998#0 625361998#1 625361998#2 625361998#3 625361998#4 625361998#5 625361998#6 625361998#7 625361998#8 625361998#9 11837579#0 11837579#1 1322596741#0 1322596741#1 1322596741#2 1322596741#3 1322596741#4 1322596741#5 1322596741#6 1322596741#7 335532207#0 335532207#1 335532207#2 335532207#3 11729090 1345264772#0 1345264772#1 1345264772#2 1345264774 1345264773 1345264766 335532206#0 335532206#1 54964356#0 54964356#1 54964356#2 1345264765 1345264771 1345264770 1345265348 318681923 335532205#0 335532205#1 1345264769#0 1345264769#1 318681921#0 318681921#1 11823485#0 11823485#1 -11742522 11699690#0 -11699690#0 11742522"/>
    </vehicle>
    <vehicle id="15" depart="15.00">
        <route edges="24931540 293149233 374792903 27630556#0 27630556#1 27630527#0 27630527#1 27630527#2 -24931882#3 11734061 -714792792#1 -714792792#0 294921196#0 294921196#1 11698857 264432818#0 264432818#1 264432818#2 11851716#0 11851716#1 11851716#2 11851716#3 11851716#4 11851716#5 11851716#6 11851716#7 -318681923 -1345265348 -1345264770 -1345264771 -1345264765 -54964356#2 -54964356#1 -54964356#0 -335532206#1 -335532206#0 -1345264766 -1345264773 -1345264774 -1345264772#2 -1345264772#1 -1345264772#0 -11729090 -335532207#3 -335532207#2 -335532207#1 -335532207#0 -1322596741#7 -1322596741#6 -1322596741#5 -1322596741#4 -1322596741#3 -1322596741#2 -1322596741#1 -1322596741#0 -11837579#1 -11837579#0 292851770#0 292851770#1 292851770#2 292851770#3 292851770#4 292851770#5 292851770#6 292851770#7 292851770#8 -11690551#9 -11690551#8 -11690551#7 -11690551#6 -11690551#5 -11690551#4 11949370#0 11949370#1"/>
    </vehicle>
    <vehicle id="16" depart="16.00">
        <route edges="1022429033#1 1022429033#2 1057194119#2 1057194119#3 1057194119#4 1057194119#5 1057194119#6 1057194119#7 1057194119#8 1057194119#9 1057194119#10 1057194119#11 1057194119#12 1057194119#13 1057194119#14 1057194119#15 1057194119#16 1057194119#17 1057194119#18 1057194119#19 1057194119#20 -625361998#9 -625361998#8 -625361998#7 -625361998#6 -625361998#5 -625361998#4 -625361998#3 -625361998#2 -625361998#1 -625361998#0 625361998#0 625361998#1"/>
    </vehicle>
    <vehicle id="17" depart="17.00">
        <route edges="-292851770#15 -292851770#14 -292851770#13 -292851770#12 -292851770#11 -292851770#10 -292851770#9 -11690551#9 -11690551#8 -11690551#7 -11690551#6 -11690551#5 -11690551#4 -11690551#3 11731298#0 11731298#1"/>
    </vehicle>
    <vehicle id="18" depart="18.00">
        <route edges="267171461#0 267171461#1 1345264772#1 1345264772#2 1345264774 1345264773 1345264766 335532206#0 335532206#1 1022073976#0 1022073976#1 1345264764 1345264768 1345264767 -11742581#1 -11742581#0 -11756576#2 11756576#2"/>
    </vehicle>
    <vehicle id="19" depart="19.00">
        <route edges="292851770#1 -292851770#1 -292851770#0 11837579#0 11837579#1 1322596741#0 1322596741#1 1322596741#2 1322596741#3 1322596741#4 1322596741#5 1322596741#6 1322596741#7 335532207#0 335532207#1 335532207#2 335532207#3 11729090 1345264772#0 1345264772#1 1345264772#2 1345264774 1345264773 1345264766 335532206#0 335532206#1 54964356#0 54964356#1 54964356#2 1345264765 1345264771 1345264770 1345265348 318681923 -11851716#7 -11851716#6 -11851716#5 -11851716#4 -11851716#3 -11851716#2 -11851716#1 -11851716#0 -264432818#2 -264432818#1 -264432818#0 -11698857 11734056"/>
    </vehicle>
    <vehicle id="20" depart="20.00">
        <route edges="11841038#1 11841038#2 11841038#3 -11687001#2"/>
    </vehicle>
    <vehicle id="21" depart="21.00">
        <route edges="-11823485#2 -11823485#1 -11823485#0 -318681921#1 -318681921#0 -1345264769#1 -1345264769#0 -335532205#1 -335532205#0 -318681923 -1345265348 -1345264770 -1345264771 -1345264765 -54964356#2 -54964356#1 -54964356#0 -335532206#1 -335532206#0 -1345264766 -1345264773 -1345264774 -1345264772#2 -1345264772#1 -1345264772#0 -11729090 -335532207#3 -335532207#2 -335532207#1 -335532207#0 335532208#0 335532208#1 24864540#0 24864540#1 24864540#2 24864540#3 24864540#4 24864540#5 24864540#6 24864540#7 24864540#8 24864540#9 24864541 320455187#0 320455187#1 320455187#2 320455187#3 320455187#4 320455187#5 -265895120#3 -265895120#2 -265895120#1 -265895120#0 1022429026#0 1022429026#1 1022429025 265895121#0 265895121#1 392332379#0 392332379#1 11755338#0 11755338#1 315436625#0 315436625#1 315436625#2 315436625#3 315436625#4 292851769 -292851769"/>
    </vehicle>
    <vehicle id="22" depart="22.00">
        <route edges="-11690551#2 -11690551#1 11690551#1 11690551#2 11731298#0 11731298#1 11731298#2 11731298#3 319357132#0 319357132#1 -24867593#0"/>
    </vehicle>
    <vehicle id="23" depart="23.00">
        <route edges="-11699690#2 -11699690#1 -11699690#0 11742522 -11823485#1 -11823485#0 318681921#2 318681921#3 318681921#4 -1022073984 -313329257#2 -313329257#1 -313329257#0 -1022073983 -366700511#2 -27643478"/>
    </vehicle>
    <vehicle id="24" depart="24.00">
        <route edges="11742522 -11823485#1 -11823485#0 -318681921#1 -318681921#0 -1345264769#1 -1345264769#0 -335532205#1 -335532205#0 -318681923 -1345265348 -1345264770 -1345264771 -1345264765 -54964356#2 -54964356#1 -54964356#0 -335532206#1 -335532206#0 -1345264766 -1345264773 -1345264774 -1345264772#2 -1345264772#1 -1345264772#0 -11729090 -335532207#3 -335532207#2 -335532207#1 -335532207#0 335532208#0 335532208#1 24864540#0 24864540#1 24864540#2 24864540#3 24864540#4 24864540#5 24864540#6 24864540#7 24864540#8 24864540#9 24864541 320455187#0 320455187#1 320455187#2 320455187#3 320455187#4 320455187#5 -265895120#3 -265895120#2 -265895120#1 -265895120#0 -11826990#7 -11826990#6 -11826990#5 -11826990#4 -11826990#3 -11826990#2 -11826990#1 -11826990#0 11960711#0 11960711#1 11960711#2 11960711#3 11960711#4 11960711#5 11960711#6 11960711#7 11960711#8 966308107#0 966308107#1 966308107#2 966308107#3 966308107#4 966308107#5 966308107#6 966308107#7 966308109#0 966308109#1 966308109#2 966308109#3 1022429028#0 1022429028#1 1022429028#2 -346964424#12 -346964424#11 -346964424#10 -346964424#9 -346964424#8 -346964424#7 -346964424#6 -346964424#5 -346964424#4 -346964424#3 -346964424#2 -346964424#1 -346964424#0"/>
    </vehicle>
    <vehicle id="25" depart="25.00">
        <route edges="-28727103#8 -28727103#7 -28727103#6 -28727103#5 -28727103#4 -28727103#3 -28727103#2 -28727103#1 -28727103#0 -320455187#5 -320455187#4 -320455187#3 -320455187#2 -320455187#1 -320455187#0 -24864541 -24864540#9 -24864540#8 -24864540#7 -24864540#6 -24864540#5 -24864540#4 -24864540#3 -24864540#2 -24864540#1 -24864540#0 -335532208#1 -335532208#0 -1322596741#7 -1322596741#6 -1322596741#5 -1322596741#4"/>
    </vehicle>
    <vehicle id="26" depart="26.00">
        <route edges="-11853299#1 -11853299#0 -372290092#4 -372290092#3 -372290092#2 -372290092#1 -372290092#0 331173873#0 331173873#1 331173873#2"/>
    </vehicle>
    <vehicle id="27" depart="27.00">
        <route edges="11753371#0 11753371#1 11690551#1 11690551#2 11690551#3 11690551#4 11690551#5 11690551#6 11690551#7 11690551#8 11690551#9 292851770#9 292851770#10 292851770#11 292851770#12 292851770#13 292851770#14 292851770#15 11687001#0 11687001#1 -267173080#3 -267173080#2 11756576#0 11756576#1 11756576#2 11742581#0"/>
    </vehicle>
    <vehicle id="28" depart="28.00">
        <route edges="-11742522 11699690#0 -11699690#0 11742522 -11823485#1 -11823485#0 -318681921#1 -318681921#0 -1345264769#1 -1345264769#0 -335532205#1 -335532205#0 -318681923 -1345265348 -1345264770 -1345264771 -1345264765 -54964356#2 -54964356#1 -54964356#0 -335532206#1 -335532206#0 -1345264766 -1345264773 -1345264774 -1345264772#2 -1345264772#1 -1345264772#0 -11729090 -335532207#3 -335532207#2 -335532207#1 -335532207#0 -1322596741#7 -1322596741#6 -1322596741#5 -1322596741#4 -1322596741#3 -1322596741#2 -1322596741#1 -1322596741#0 -11837579#1 -11837579#0 292851770#0 292851770#1 292851770#2 292851770#3 292851770#4 292851770#5 292851770#6 292851770#7 292851770#8 -11690551#9 -11690551#8 -11690551#7 -11690551#6 -11690551#5 -11690551#4 11949370#0 11949370#1"/>
    </vehicle>
    <vehicle id="29" depart="29.00">
        <route edges="-11740080 11742581#0 11742581#1 -1345264767 -1345264768 -1345264764 -1022073976#1 -1022073976#0 -335532206#1 -335532206#0 -1345264766 -1345264773 -1345264774 -1345264772#2 -1345264772#1 -1345264772#0 -11729090 -335532207#3 -335532207#2 -335532207#1 -335532207#0 -1322596741#7 -1322596741#6 -1322596741#5 -1322596741#4 -1322596741#3 -1322596741#2 -1322596741#1 -1322596741#0 -11837579#1 -11837579#0 -1057194119#20 -1057194119#19 -1057194119#18 -1057194119#17 -1057194119#16 -1057194119#15 -1057194119#14 -1057194119#13 -1057194119#12 -1057194119#11 -1057194119#10 -1057194119#9 -1057194119#8 -1057194119#7 -1057194119#6 -1057194119#5 -1057194119#4 -1057194119#3 -1057194119#2 -1022429033#2 -1022429033#1 -1022429033#0 -11853299#2 -11853299#1 -11853299#0 -372290092#4 -372290092#3 -372290092#2 -372290092#1"/>
    </vehicle>
    <vehicle id="30" depart="30.00">
        <route edges="714792792#1 714793939 27630527#2 -24931882#3 11734061 -714792792#1 -714792792#0 294921196#0 294921196#1 11698857 264432818#0 264432818#1 264432818#2 11851716#0 11851716#1 11851716#2 11851716#3 11851716#4 11851716#5 11851716#6 11851716#7 -318681923 -1345265348 -1345264770 -1345264771 -1345264765 -54964356#2 -54964356#1 -54964356#0 -335532206#1 -335532206#0 -1345264766 -1345264773 -1345264774 -1345264772#2 -1345264772#1 -1345264772#0 -11729090 -335532207#3 -335532207#2 -335532207#1 -335532207#0 335532208#0 335532208#1 24864540#0 24864540#1 24864540#2 24864540#3 24864540#4 24864540#5 24864540#6 24864540#7 24864540#8 24864540#9 24864541 320455187#0 320455187#1 320455187#2 320455187#3 320455187#4 320455187#5 -265895120#3 -265895120#2 -265895120#1 -265895120#0 -11826990#7 -11826990#6 -11826990#5 -11826990#4 -11826990#3 -11826990#2 -11826990#1 -11826990#0 625851681#0 625851681#1 625851681#2 625851681#3 625851681#4 11805275#0 11805275#1"/>
    </vehicle>
    <vehicle id="31" depart="31.00">
        <route edges="11672244#3 11672244#4 -1322596741#1 -1322596741#0 -11837579#1 -11837579#0 292851770#0 292851770#1 292851770#2 292851770#3 292851770#4 292851770#5 292851770#6 292851770#7 292851770#8 -11690551#9 -11690551#8 -11690551#7 -11690551#6 -11690551#5 -11690551#4 -11690551#3 11731298#0 11731298#1 11731298#2 11731298#3 11837525#2 11837525#3"/>
    </vehicle>
    <vehicle id="32" depart="32.00">
        <route edges="27630556#0 27630556#1 27630527#0 27630527#1 27630527#2 -24931882#3 11734061 -714792792#1 -714792792#0 294921196#0 294921196#1 11698857 264432818#0 264432818#1 264432818#2 11851716#0 11851716#1 11851716#2 11851716#3 11851716#4 11851716#5 11851716#6 11851716#7 -318681923 -1345265348 -1345264770 -1345264771 -1345264765 -54964356#2 -54964356#1 -54964356#0 -335532206#1 -335532206#0 -1345264766 -1345264773 -1345264774 -1345264772#2 -1345264772#1 -1345264772#0 -11729090 -335532207#3 -335532207#2 -335532207#1 -335532207#0 -1322596741#7 -1322596741#6 -1322596741#5 -1322596741#4 -1322596741#3 -1322596741#2 -1322596741#1 -1322596741#0 -11837579#1 -11837579#0 292851770#0 292851770#1 292851770#2 292851770#3 292851770#4 292851770#5 292851770#6 292851770#7 292851770#8 -11690551#9 -11690551#8 -11690551#7 11822295#0 11822295#1 11822295#2 11822295#3 11822295#4 11822295#5 330174434#0 330174434#1 330174434#2 24867593#7"/>
    </vehicle>
    <vehicle id="33" depart="33.00">
        <route edges="-11824942#1 -11824942#0 1022429033#5 1022429033#6 11690551#0 -11690551#0 -1022429033#6"/>
    </vehicle>
    <vehicle id="34" depart="34.00">
        <route edges="-24864540#2 -24864540#1 -24864540#0 -335532208#1 -335532208#0 335532207#0 335532207#1 335532207#2 335532207#3 11729090 1345264772#0 -267171461#1 -267171461#0 -11944354#1 -11944354#0 11833234 267173080#0 267173080#1 -267173080#1"/>
    </vehicle>
    <vehicle id="35" depart="35.00">
        <route edges="-11822295#1 -11822295#0 11690551#7 11690551#8 11690551#9 -292851770#8 -292851770#7 -292851770#6 -292851770#5 -292851770#4 -292851770#3 -292851770#2 -292851770#1 -292851770#0 -625361998#9 -625361998#8 -625361998#7 -625361998#6 -625361998#5 -625361998#4 -625361998#3 -625361998#2 -625361998#1 -625361998#0 11955884#0 11955884#1 11955884#2 11955884#3 11955884#4 346964423#0 346964423#1"/>
    </vehicle>
    <vehicle id="36" depart="36.00">
        <route edges="294921129#0 294921129#1 294921129#2 294921129#3 -11805275#2 -11805275#1 -11805275#0 625361998#0 625361998#1 625361998#2 625361998#3 625361998#4 625361998#5 625361998#6 625361998#7 625361998#8 625361998#9 11837579#0 11837579#1 1322596741#0 1322596741#1 1322596741#2 1322596741#3 1322596741#4 1322596741#5 1322596741#6 1322596741#7 335532207#0 335532207#1 335532207#2 335532207#3 11729090 1345264772#0 1345264772#1 1345264772#2 1345264774 1345264773 1345264766 335532206#0 335532206#1 54964356#0 54964356#1 54964356#2 1345264765 1345264771 1345264770 1345265348 318681923 -11851716#7 -11851716#6 -11851716#5 -11851716#4 -11851716#3 -11851716#2 -11851716#1 -11851716#0 -264432818#2 -264432818#1 -264432818#0 -11698857 -294921196#1 -294921196#0"/>
    </vehicle>
    <vehicle id="37" depart="37.00">
        <route edges="11756576#1 11756576#2 11742581#0 11742581#1 -1345264767 -1345264768 -1345264764 -1022073976#1 -1022073976#0 -335532206#1 -335532206#0 -1345264766 -1345264773 -1345264774 -1345264772#2 -1345264772#1 -1345264772#0 -11729090 -335532207#3 -335532207#2 -335532207#1 -335532207#0 335532208#0 335532208#1 24864540#0 24864540#1 24864540#2 24864540#3 24864540#4 24864540#5 24864540#6 24864540#7 24864540#8 24864540#9 24864541 320455187#0 320455187#1 320455187#2 320455187#3 320455187#4 320455187#5 -265895120#3 -265895120#2 -265895120#1 -265895120#0 -11826990#7 -11826990#6 -11826990#5 -11826990#4 -11826990#3 -11826990#2 -11826990#1 -11826990#0 625851681#0 625851681#1 625851681#2 625851681#3 625851681#4 -625851681#4 -625851681#3"/>
    </vehicle>
    <vehicle id="38" depart="38.00">
        <route edges="318681921#0 318681921#1 -318681921#1 -318681921#0 -1345264769#1 -1345264769#0 -335532205#1 -335532205#0 -318681923 -1345265348 -1345264770 -1345264771 -1345264765 -54964356#2 -54964356#1 -54964356#0 -335532206#1 -335532206#0 -1345264766 -1345264773 -1345264774 -1345264772#2 -1345264772#1 -1345264772#0 -11729090 11672244#0 11672244#1 11672244#2 11672244#3"/>
    </vehicle>
    <vehicle id="39" depart="39.00">
        <route edges="-11853299#0 -372290092#4 -372290092#3 -372290092#2 -372290092#1 -372290092#0 -346964424#12 -346964424#11 -346964424#10 -346964424#9 -346964424#8 -346964424#7 -346964424#6 -346964424#5 -346964424#4 -346964424#3 -346964424#2 -346964424#1 -346964424#0 -346964423#5 -346964423#4 -346964423#3 -346964423#2 -346964423#1 -346964423#0 -11955884#4 -11955884#3 -11955884#2 -11955884#1 -11955884#0 625361998#0 625361998#1 625361998#2 625361998#3 625361998#4 625361998#5 625361998#6 625361998#7 625361998#8 625361998#9 11837579#0 11837579#1 1322596741#0 1322596741#1 1322596741#2 1322596741#3 1322596741#4 1322596741#5 1322596741#6 1322596741#7 335532207#0 335532207#1 335532207#2 335532207#3 11729090 1345264772#0 1345264772#1 1345264772#2 1345264774 1345264773 1345264766 335532206#0 335532206#1 54964356#0 54964356#1 54964356#2 1345264765 1345264771 1345264770 1345265348 318681923 -11851716#7 -11851716#6 -11851716#5 -11851716#4 -11851716#3 -11851716#2 -11851716#1 -11851716#0 -264432818#2 -264432818#1 -264432818#0 -11698857 -294921196#1 -294921196#0 714792792#0 714792792#1 714793939 27630527#2 -24931882#3 -24931882#2 -24931882#1"/>
    </vehicle>
    <vehicle id="40" depart="40.00">
        <route edges="11687001#1 -267173080#3 -267173080#2 -267173080#1 -267173080#0 -11833234 11944354#0 11944354#1 267171461#0 267171461#1 -267171461#1 -267171461#0"/>
    </vehicle>
    <vehicle id="41" depart="41.00">
        <route edges="11690395#5 11690395#6 -11690395#6 -11690395#5 -11690395#4 -11690395#3 -11690395#2 -11690395#1 -11690395#0 -1345264767 -1345264768 -1345264764 -1022073976#1 -1022073976#0 -335532206#1 -335532206#0 -1345264766 -1345264773 -1345264774 -1345264772#2 -1345264772#1 -1345264772#0 -11729090 -335532207#3 -335532207#2 -335532207#1 -335532207#0 335532208#0 335532208#1 24864540#0 24864540#1 24864540#2 24864540#3 24864540#4 24864540#5 24864540#6 24864540#7 24864540#8 24864540#9 24864541 320455187#0 320455187#1 320455187#2 320455187#3 320455187#4 320455187#5 -265895120#3 -265895120#2 -265895120#1 -265895120#0 1022429026#0 1022429026#1 1022429025 265895121#0 265895121#1 392332379#0 392332379#1 11755338#0 11755338#1 315436625#0 315436625#1 315436625#2"/>
    </vehicle>
    <vehicle id="42" depart="42.00">
        <route edges="-294921129#1 -294921129#0 -294921134#3 -294921134#2 -294921134#1 -294921134#0 11826990#3 11826990#4 11826990#5 11826990#6 11826990#7 265895120#0 265895120#1 265895120#2 265895120#3 -320455187#5 -320455187#4 -320455187#3 -320455187#2 -320455187#1 -320455187#0 -24864541 -24864540#9 -24864540#8 -24864540#7 -24864540#6 -24864540#5 -24864540#4 -24864540#3 -24864540#2 -24864540#1 -24864540#0 -335532208#1 -335532208#0 335532207#0 335532207#1 335532207#2 335532207#3 11729090 1345264772#0 1345264772#1 1345264772#2 1345264774 1345264773 1345264766 335532206#0 335532206#1 54964356#0 54964356#1 54964356#2 1345264765 1345264771 -1345264771"/>
    </vehicle>
    <vehicle id="43" depart="43.00">
        <route edges="966308107#7 966308109#0 966308109#1 966308109#2 966308109#3 1022429028#0 1022429028#1 1022429028#2 -346964424#12 -346964424#11 -346964424#10 -346964424#9 -346964424#8 -346964424#7 -346964424#6 -346964424#5 -346964424#4 -346964424#3 -346964424#2 -346964424#1 -346964424#0 -346964423#5 -346964423#4 -346964423#3 -346964423#2 -346964423#1 -346964423#0 -11955884#4 -11955884#3 -11955884#2 -11955884#1 -11955884#0 -625851681#4 -625851681#3 -625851681#2 -625851681#1 -625851681#0 -28727096#8 -28727096#7 -28727096#6 -28727096#5 -28727096#4 -28727096#3 11697077#0 11697077#1"/>
    </vehicle>
    <vehicle id="44" depart="44.00">
        <route edges="-11699690#2 -11699690#1 -11699690#0 11742522 -11823485#1 -11823485#0 -318681921#1 -318681921#0 -1345264769#1 -1345264769#0 -335532205#1 -335532205#0 -318681923 -1345265348 -1345264770 -1345264771 -1345264765 -54964356#2 -54964356#1 -54964356#0 -335532206#1 -335532206#0 -1345264766 -1345264773 -1345264774 -1345264772#2 -1345264772#1 -267171461#1 -267171461#0 -11944354#1 -11944354#0 11833234 267173080#0 267173080#1 267173080#2 267173080#3 11687001#2 -11687001#2"/>
    </vehicle>
    <vehicle id="45" depart="45.00">
        <route edges="-11699690#2 -11699690#1 -11699690#0 11742522 -11823485#1 -11823485#0 -318681921#1 -318681921#0 -1345264769#1 -1345264769#0 -335532205#1 -335532205#0 -11851716#7 -11851716#6 -11851716#5 -11851716#4 -11851716#3 -11851716#2 -11851716#1 -11851716#0 -264432818#2 -264432818#1 -264432818#0 -11698857 -294921196#1 -294921196#0 1317034674 1022073987 1022073986#0 1022073986#1 1022073986#2 11834303#0 11834303#1 11803878"/>
    </vehicle>
    <vehicle id="46" depart="46.00">
        <route edges="24867593#0 24867593#1 24867593#2 24867593#3 24867593#4 24867593#5 24867593#6 24867593#7 24867593#8 -292851770#26 -292851770#25 -292851770#24 -292851770#23 -292851770#22 -292851770#21 -292851770#20 -292851770#19 -292851770#18 -292851770#17 -292851770#16 -292851770#15 -292851770#14 -292851770#13 -292851770#12 -292851770#11 -292851770#10 -292851770#9 -292851770#8 -292851770#7 -292851770#6 -292851770#5 -292851770#4 -292851770#3 -292851770#2 -292851770#1 -292851770#0 11837579#0 11837579#1 1322596741#0 1322596741#1 1322596741#2 1322596741#3 1322596741#4 1322596741#5 1322596741#6 1322596741#7 335532207#0 335532207#1 335532207#2 335532207#3 11729090 1345264772#0 1345264772#1 1345264772#2 1345264774 1345264773 1345264766 335532206#0 335532206#1 54964356#0 54964356#1 54964356#2 1345264765 1345264771 1345264770 1345265348 318681923 -11851716#7 -11851716#6 -11851716#5 -11851716#4 -11851716#3 -11851716#2 -11851716#1 -11851716#0 -264432818#2 -264432818#1 -264432818#0 -11698857 -294921196#1 -294921196#0 1317034674 1022073987 1022073986#0 1022073986#1 1022073986#2"/>
    </vehicle>
    <vehicle id="47" depart="47.00">
        <route edges="-11690395#0 -1345264767 -1345264768 -1345264764 -1022073976#1 -1022073976#0 -335532206#1 -335532206#0 -1345264766 -1345264773 -1345264774 -1345264772#2 -1345264772#1 -1345264772#0 -11729090 -335532207#3 -335532207#2 -335532207#1 -335532207#0 -1322596741#7 -1322596741#6 -1322596741#5 -1322596741#4 -1322596741#3 -1322596741#2 -1322596741#1 -1322596741#0 -11837579#1 -11837579#0 -1057194119#20 -1057194119#19 -1057194119#18 -1057194119#17 -1057194119#16 -1057194119#15 -1057194119#14 -1057194119#13 -1057194119#12 -1057194119#11 -1057194119#10 -1057194119#9 -1057194119#8 -1057194119#7 -1057194119#6 -1057194119#5 -1057194119#4 -1057194119#3 -1057194119#2 -1022429033#2 -1022429033#1 -1022429033#0 -11853299#2 -11853299#1 -11853299#0 -372290092#4 -372290092#3 -372290092#2"/>
    </vehicle>
    <vehicle id="48" depart="48.00">